simulator lang=spectre
v0 (vdd! 0) vsource type=dc dc=1.2
v1 (A0 0) vsource type=pulse val0=0 val1=1.2 delay=0 rise=0.2n fall=0.2n
+ width=10n period=20n
v2 (A1 0) vsource type=pulse val0=0 val1=1.2 delay=0 rise=0.2n fall=0.2n
+ width=20n period=40n
v3 (B0 0) vsource type=pulse val0=0 val1=1.2 delay=0 rise=0.2n fall=0.2n
+ width=40n period=80n
v4 (B1 0) vsource type=pulse val0=0 val1=1.2 delay=0 rise=0.2n fall=0.2n
+ width=80n period=160n
v5 (OP0 0) vsource type=dc dc=0
v6 (OP1 0) vsource type=dc dc=1
v7 (OP2 0) vsource type=dc dc=0
v8 (ena 0) vsource type=dc dc=1.2

ca (O0 0) capacitor c=50f
cb (O1 0) capacitor c=50f
cc (O2 0) capacitor c=50f
cd (O3 0) capacitor c=50f
ce (V01 0) capacitor c=50f
cf (V2 0) capacitor c=50f
cg (V3 0) capacitor c=50f

save :pwr